SmartGridMain/IEEE33/outfile.dss
!---- pre object declareation
Clear 
Set DefaultBaseFrequency=60 

!---- Generated Circuit
new circuit.Master33 
~ basekv=12.66 pu=1 phases=3 bus1=1 
~ MVAsc3=5000000 MVAsc1=5000000 
!---- Generated Transformer
New Transformer.TR2 Windings=2 sub=y XHL=4 
~ wdg=1 bus=2 conn=Delta kv=12.66 kva=800  
~ wdg=2 bus=2001 conn=Wye kv=0.416 kva=800 
New Transformer.TR3 Windings=2 sub=y XHL=4 
~ wdg=1 bus=3 conn=Delta kv=12.66 kva=800  
~ wdg=2 bus=3001 conn=Wye kv=0.416 kva=800 
New Transformer.TR4 Windings=2 sub=y XHL=4 
~ wdg=1 bus=4 conn=Delta kv=12.66 kva=800  
~ wdg=2 bus=4001 conn=Wye kv=0.416 kva=800 
New Transformer.TR5 Windings=2 sub=y XHL=4 
~ wdg=1 bus=5 conn=Delta kv=12.66 kva=800  
~ wdg=2 bus=5001 conn=Wye kv=0.416 kva=800 
New Transformer.TR6 Windings=2 sub=y XHL=4 
~ wdg=1 bus=6 conn=Delta kv=12.66 kva=800  
~ wdg=2 bus=6001 conn=Wye kv=0.416 kva=800 
New Transformer.TR7 Windings=2 sub=y XHL=4 
~ wdg=1 bus=7 conn=Delta kv=12.66 kva=800  
~ wdg=2 bus=7001 conn=Wye kv=0.416 kva=800 
New Transformer.TR8 Windings=2 sub=y XHL=4 
~ wdg=1 bus=8 conn=Delta kv=12.66 kva=800  
~ wdg=2 bus=8001 conn=Wye kv=0.416 kva=800 
New Transformer.TR9 Windings=2 sub=y XHL=4 
~ wdg=1 bus=9 conn=Delta kv=12.66 kva=800  
~ wdg=2 bus=9001 conn=Wye kv=0.416 kva=800 
New Transformer.TR10 Windings=2 sub=y XHL=4 
~ wdg=1 bus=10 conn=Delta kv=12.66 kva=800  
~ wdg=2 bus=10001 conn=Wye kv=0.416 kva=800 
New Transformer.TR11 Windings=2 sub=y XHL=4 
~ wdg=1 bus=11 conn=Delta kv=12.66 kva=800  
~ wdg=2 bus=11001 conn=Wye kv=0.416 kva=800 
New Transformer.TR12 Windings=2 sub=y XHL=4 
~ wdg=1 bus=12 conn=Delta kv=12.66 kva=800  
~ wdg=2 bus=12001 conn=Wye kv=0.416 kva=800 
New Transformer.TR13 Windings=2 sub=y XHL=4 
~ wdg=1 bus=13 conn=Delta kv=12.66 kva=800  
~ wdg=2 bus=13001 conn=Wye kv=0.416 kva=800 
New Transformer.TR14 Windings=2 sub=y XHL=4 
~ wdg=1 bus=14 conn=Delta kv=12.66 kva=800  
~ wdg=2 bus=14001 conn=Wye kv=0.416 kva=800 
New Transformer.TR15 Windings=2 sub=y XHL=4 
~ wdg=1 bus=15 conn=Delta kv=12.66 kva=800  
~ wdg=2 bus=15001 conn=Wye kv=0.416 kva=800 
New Transformer.TR16 Windings=2 sub=y XHL=4 
~ wdg=1 bus=16 conn=Delta kv=12.66 kva=800  
~ wdg=2 bus=16001 conn=Wye kv=0.416 kva=800 
New Transformer.TR17 Windings=2 sub=y XHL=4 
~ wdg=1 bus=17 conn=Delta kv=12.66 kva=800  
~ wdg=2 bus=17001 conn=Wye kv=0.416 kva=800 
New Transformer.TR18 Windings=2 sub=y XHL=4 
~ wdg=1 bus=18 conn=Delta kv=12.66 kva=800  
~ wdg=2 bus=18001 conn=Wye kv=0.416 kva=800 
New Transformer.TR19 Windings=2 sub=y XHL=4 
~ wdg=1 bus=19 conn=Delta kv=12.66 kva=800  
~ wdg=2 bus=19001 conn=Wye kv=0.416 kva=800 
New Transformer.TR20 Windings=2 sub=y XHL=4 
~ wdg=1 bus=20 conn=Delta kv=12.66 kva=800  
~ wdg=2 bus=20001 conn=Wye kv=0.416 kva=800 
New Transformer.TR21 Windings=2 sub=y XHL=4 
~ wdg=1 bus=21 conn=Delta kv=12.66 kva=800  
~ wdg=2 bus=21001 conn=Wye kv=0.416 kva=800 
New Transformer.TR22 Windings=2 sub=y XHL=4 
~ wdg=1 bus=22 conn=Delta kv=12.66 kva=800  
~ wdg=2 bus=22001 conn=Wye kv=0.416 kva=800 
New Transformer.TR23 Windings=2 sub=y XHL=4 
~ wdg=1 bus=23 conn=Delta kv=12.66 kva=800  
~ wdg=2 bus=23001 conn=Wye kv=0.416 kva=800 
New Transformer.TR24 Windings=2 sub=y XHL=4 
~ wdg=1 bus=24 conn=Delta kv=12.66 kva=800  
~ wdg=2 bus=24001 conn=Wye kv=0.416 kva=800 
New Transformer.TR25 Windings=2 sub=y XHL=4 
~ wdg=1 bus=25 conn=Delta kv=12.66 kva=800  
~ wdg=2 bus=25001 conn=Wye kv=0.416 kva=800 
New Transformer.TR26 Windings=2 sub=y XHL=4 
~ wdg=1 bus=26 conn=Delta kv=12.66 kva=800  
~ wdg=2 bus=26001 conn=Wye kv=0.416 kva=800 
New Transformer.TR27 Windings=2 sub=y XHL=4 
~ wdg=1 bus=27 conn=Delta kv=12.66 kva=800  
~ wdg=2 bus=27001 conn=Wye kv=0.416 kva=800 
New Transformer.TR28 Windings=2 sub=y XHL=4 
~ wdg=1 bus=28 conn=Delta kv=12.66 kva=800  
~ wdg=2 bus=28001 conn=Wye kv=0.416 kva=800 
New Transformer.TR29 Windings=2 sub=y XHL=4 
~ wdg=1 bus=29 conn=Delta kv=12.66 kva=800  
~ wdg=2 bus=29001 conn=Wye kv=0.416 kva=800 
New Transformer.TR30 Windings=2 sub=y XHL=4 
~ wdg=1 bus=30 conn=Delta kv=12.66 kva=800  
~ wdg=2 bus=30001 conn=Wye kv=0.416 kva=800 
New Transformer.TR31 Windings=2 sub=y XHL=4 
~ wdg=1 bus=31 conn=Delta kv=12.66 kva=800  
~ wdg=2 bus=31001 conn=Wye kv=0.416 kva=800 
New Transformer.TR32 Windings=2 sub=y XHL=4 
~ wdg=1 bus=32 conn=Delta kv=12.66 kva=800  
~ wdg=2 bus=32001 conn=Wye kv=0.416 kva=800 
New Transformer.TR33 Windings=2 sub=y XHL=4 
~ wdg=1 bus=33 conn=Delta kv=12.66 kva=800  
~ wdg=2 bus=33001 conn=Wye kv=0.416 kva=800 
!---- Generated RegControls

!---- Generated Line Codes

!---- Generated Loads
New Load.2056.1 Bus1=2056.1 Phases=1 kV=0.240 kW=0 kvar=0 
New Load.2057.2 Bus1=2057.2 Phases=1 kV=0.240 kW=0 kvar=0 
New Load.2058.1 Bus1=2058.1 Phases=1 kV=0.240 kW=0 kvar=0 
New Load.2059.1 Bus1=2059.1 Phases=1 kV=0.240 kW=0 kvar=0 
New Load.2060.1 Bus1=2060.1 Phases=1 kV=0.240 kW=0 kvar=0 
New Load.2061.2 Bus1=2061.2 Phases=1 kV=0.240 kW=0 kvar=0 
New Load.2062.2 Bus1=2062.2 Phases=1 kV=0.240 kW=0 kvar=0 
New Load.2063.3 Bus1=2063.3 Phases=1 kV=0.240 kW=0 kvar=0 
New Load.2064.1 Bus1=2064.1 Phases=1 kV=0.240 kW=0 kvar=0 
New Load.2065.2 Bus1=2065.2 Phases=1 kV=0.240 kW=0 kvar=0 
New Load.2066.2 Bus1=2066.2 Phases=1 kV=0.240 kW=0 kvar=0 
New Load.2067.3 Bus1=2067.3 Phases=1 kV=0.240 kW=0 kvar=0 
New Load.2068.2 Bus1=2068.2 Phases=1 kV=0.240 kW=0 kvar=0 
New Load.2069.1 Bus1=2069.1 Phases=1 kV=0.240 kW=0 kvar=0 
New Load.2070.2 Bus1=2070.2 Phases=1 kV=0.240 kW=0 kvar=0 
New Load.2071.3 Bus1=2071.3 Phases=1 kV=0.240 kW=0 kvar=0 
New Load.2072.3 Bus1=2072.3 Phases=1 kV=0.240 kW=0 kvar=0 
New Load.2073.3 Bus1=2073.3 Phases=1 kV=0.240 kW=0 kvar=0 
New Load.2074.3 Bus1=2074.3 Phases=1 kV=0.240 kW=0 kvar=0 
New Load.2075.1 Bus1=2075.1 Phases=1 kV=0.240 kW=0 kvar=0 
New Load.2076.1 Bus1=2076.1 Phases=1 kV=0.240 kW=0 kvar=0 
New Load.2077.1 Bus1=2077.1 Phases=1 kV=0.240 kW=0 kvar=0 
New Load.2078.2 Bus1=2078.2 Phases=1 kV=0.240 kW=0 kvar=0 
New Load.2079.3 Bus1=2079.3 Phases=1 kV=0.240 kW=0 kvar=0 
New Load.2080.1 Bus1=2080.1 Phases=1 kV=0.240 kW=0 kvar=0 
New Load.2081.2 Bus1=2081.2 Phases=1 kV=0.240 kW=0 kvar=0 
New Load.2082.3 Bus1=2082.3 Phases=1 kV=0.240 kW=0 kvar=0 
New Load.2083.3 Bus1=2083.3 Phases=1 kV=0.240 kW=0 kvar=0 
New Load.2084.1 Bus1=2084.1 Phases=1 kV=0.240 kW=0 kvar=0 
New Load.2085.1 Bus1=2085.1 Phases=1 kV=0.240 kW=0 kvar=0 
New Load.2086.1 Bus1=2086.1 Phases=1 kV=0.240 kW=0 kvar=0 
New Load.2087.3 Bus1=2087.3 Phases=1 kV=0.240 kW=0 kvar=0 
New Load.2088.3 Bus1=2088.3 Phases=1 kV=0.240 kW=0 kvar=0 
New Load.2089.1 Bus1=2089.1 Phases=1 kV=0.240 kW=0 kvar=0 
New Load.2090.2 Bus1=2090.2 Phases=1 kV=0.240 kW=0 kvar=0 
New Load.2091.2 Bus1=2091.2 Phases=1 kV=0.240 kW=0 kvar=0 
New Load.2092.2 Bus1=2092.2 Phases=1 kV=0.240 kW=0 kvar=0 
New Load.2093.2 Bus1=2093.2 Phases=1 kV=0.240 kW=0 kvar=0 
New Load.2094.3 Bus1=2094.3 Phases=1 kV=0.240 kW=0 kvar=0 
New Load.2095.2 Bus1=2095.2 Phases=1 kV=0.240 kW=0 kvar=0 
New Load.2096.2 Bus1=2096.2 Phases=1 kV=0.240 kW=0 kvar=0 
New Load.2097.3 Bus1=2097.3 Phases=1 kV=0.240 kW=0 kvar=0 
New Load.2098.3 Bus1=2098.3 Phases=1 kV=0.240 kW=0 kvar=0 
New Load.2099.2 Bus1=2099.2 Phases=1 kV=0.240 kW=0 kvar=0 
New Load.2100.2 Bus1=2100.2 Phases=1 kV=0.240 kW=0 kvar=0 
New Load.2101.1 Bus1=2101.1 Phases=1 kV=0.240 kW=0 kvar=0 
New Load.2102.3 Bus1=2102.3 Phases=1 kV=0.240 kW=0 kvar=0 
New Load.2103.1 Bus1=2103.1 Phases=1 kV=0.240 kW=0 kvar=0 
New Load.2104.1 Bus1=2104.1 Phases=1 kV=0.240 kW=0 kvar=0 
New Load.2105.2 Bus1=2105.2 Phases=1 kV=0.240 kW=0 kvar=0 
New Load.2106.1 Bus1=2106.1 Phases=1 kV=0.240 kW=0 kvar=0 
New Load.2107.1 Bus1=2107.1 Phases=1 kV=0.240 kW=0 kvar=0 
New Load.2108.2 Bus1=2108.2 Phases=1 kV=0.240 kW=0 kvar=0 
New Load.2109.1 Bus1=2109.1 Phases=1 kV=0.240 kW=0 kvar=0 
New Load.2110.1 Bus1=2110.1 Phases=1 kV=0.240 kW=0 kvar=0 
New Load.3056.1 Bus1=3056.1 Phases=1 kV=0.240 kW=0 kvar=0 
New Load.3057.2 Bus1=3057.2 Phases=1 kV=0.240 kW=0 kvar=0 
New Load.3058.1 Bus1=3058.1 Phases=1 kV=0.240 kW=0 kvar=0 
New Load.3059.1 Bus1=3059.1 Phases=1 kV=0.240 kW=0 kvar=0 
New Load.3060.1 Bus1=3060.1 Phases=1 kV=0.240 kW=0 kvar=0 
New Load.3061.2 Bus1=3061.2 Phases=1 kV=0.240 kW=0 kvar=0 
New Load.3062.2 Bus1=3062.2 Phases=1 kV=0.240 kW=0 kvar=0 
New Load.3063.3 Bus1=3063.3 Phases=1 kV=0.240 kW=0 kvar=0 
New Load.3064.1 Bus1=3064.1 Phases=1 kV=0.240 kW=0 kvar=0 
New Load.3065.2 Bus1=3065.2 Phases=1 kV=0.240 kW=0 kvar=0 
New Load.3066.2 Bus1=3066.2 Phases=1 kV=0.240 kW=0 kvar=0 
New Load.3067.3 Bus1=3067.3 Phases=1 kV=0.240 kW=0 kvar=0 
New Load.3068.2 Bus1=3068.2 Phases=1 kV=0.240 kW=0 kvar=0 
New Load.3069.1 Bus1=3069.1 Phases=1 kV=0.240 kW=0 kvar=0 
New Load.3070.2 Bus1=3070.2 Phases=1 kV=0.240 kW=0 kvar=0 
New Load.3071.3 Bus1=3071.3 Phases=1 kV=0.240 kW=0 kvar=0 
New Load.3072.3 Bus1=3072.3 Phases=1 kV=0.240 kW=0 kvar=0 
New Load.3073.3 Bus1=3073.3 Phases=1 kV=0.240 kW=0 kvar=0 
New Load.3074.3 Bus1=3074.3 Phases=1 kV=0.240 kW=0 kvar=0 
New Load.3075.1 Bus1=3075.1 Phases=1 kV=0.240 kW=0 kvar=0 
New Load.3076.1 Bus1=3076.1 Phases=1 kV=0.240 kW=0 kvar=0 
New Load.3077.1 Bus1=3077.1 Phases=1 kV=0.240 kW=0 kvar=0 
New Load.3078.2 Bus1=3078.2 Phases=1 kV=0.240 kW=0 kvar=0 
New Load.3079.3 Bus1=3079.3 Phases=1 kV=0.240 kW=0 kvar=0 
New Load.3080.1 Bus1=3080.1 Phases=1 kV=0.240 kW=0 kvar=0 
New Load.3081.2 Bus1=3081.2 Phases=1 kV=0.240 kW=0 kvar=0 
New Load.3082.3 Bus1=3082.3 Phases=1 kV=0.240 kW=0 kvar=0 
New Load.3083.3 Bus1=3083.3 Phases=1 kV=0.240 kW=0 kvar=0 
New Load.3084.1 Bus1=3084.1 Phases=1 kV=0.240 kW=0 kvar=0 
New Load.3085.1 Bus1=3085.1 Phases=1 kV=0.240 kW=0 kvar=0 
New Load.3086.1 Bus1=3086.1 Phases=1 kV=0.240 kW=0 kvar=0 
New Load.3087.3 Bus1=3087.3 Phases=1 kV=0.240 kW=0 kvar=0 
New Load.3088.3 Bus1=3088.3 Phases=1 kV=0.240 kW=0 kvar=0 
New Load.3089.1 Bus1=3089.1 Phases=1 kV=0.240 kW=0 kvar=0 
New Load.3090.2 Bus1=3090.2 Phases=1 kV=0.240 kW=0 kvar=0 
New Load.3091.2 Bus1=3091.2 Phases=1 kV=0.240 kW=0 kvar=0 
New Load.3092.2 Bus1=3092.2 Phases=1 kV=0.240 kW=0 kvar=0 
New Load.3093.2 Bus1=3093.2 Phases=1 kV=0.240 kW=0 kvar=0 
New Load.3094.3 Bus1=3094.3 Phases=1 kV=0.240 kW=0 kvar=0 
New Load.3095.2 Bus1=3095.2 Phases=1 kV=0.240 kW=0 kvar=0 
New Load.3096.2 Bus1=3096.2 Phases=1 kV=0.240 kW=0 kvar=0 
New Load.3097.3 Bus1=3097.3 Phases=1 kV=0.240 kW=0 kvar=0 
New Load.3098.3 Bus1=3098.3 Phases=1 kV=0.240 kW=0 kvar=0 
New Load.3099.2 Bus1=3099.2 Phases=1 kV=0.240 kW=0 kvar=0 
New Load.3100.2 Bus1=3100.2 Phases=1 kV=0.240 kW=0 kvar=0 
New Load.3101.1 Bus1=3101.1 Phases=1 kV=0.240 kW=0 kvar=0 
New Load.3102.3 Bus1=3102.3 Phases=1 kV=0.240 kW=0 kvar=0 
New Load.3103.1 Bus1=3103.1 Phases=1 kV=0.240 kW=0 kvar=0 
New Load.3104.1 Bus1=3104.1 Phases=1 kV=0.240 kW=0 kvar=0 
New Load.3105.2 Bus1=3105.2 Phases=1 kV=0.240 kW=0 kvar=0 
New Load.3106.1 Bus1=3106.1 Phases=1 kV=0.240 kW=0 kvar=0 
New Load.3107.1 Bus1=3107.1 Phases=1 kV=0.240 kW=0 kvar=0 
New Load.3108.2 Bus1=3108.2 Phases=1 kV=0.240 kW=0 kvar=0 
New Load.3109.1 Bus1=3109.1 Phases=1 kV=0.240 kW=0 kvar=0 
New Load.3110.1 Bus1=3110.1 Phases=1 kV=0.240 kW=0 kvar=0 
New Load.4056.1 Bus1=4056.1 Phases=1 kV=0.240 kW=0 kvar=0 
New Load.4057.2 Bus1=4057.2 Phases=1 kV=0.240 kW=0 kvar=0 
New Load.4058.1 Bus1=4058.1 Phases=1 kV=0.240 kW=0 kvar=0 
New Load.4059.1 Bus1=4059.1 Phases=1 kV=0.240 kW=0 kvar=0 
New Load.4060.1 Bus1=4060.1 Phases=1 kV=0.240 kW=0 kvar=0 
New Load.4061.2 Bus1=4061.2 Phases=1 kV=0.240 kW=0 kvar=0 
New Load.4062.2 Bus1=4062.2 Phases=1 kV=0.240 kW=0 kvar=0 
New Load.4063.3 Bus1=4063.3 Phases=1 kV=0.240 kW=0 kvar=0 
New Load.4064.1 Bus1=4064.1 Phases=1 kV=0.240 kW=0 kvar=0 
New Load.4065.2 Bus1=4065.2 Phases=1 kV=0.240 kW=0 kvar=0 
New Load.4066.2 Bus1=4066.2 Phases=1 kV=0.240 kW=0 kvar=0 
New Load.4067.3 Bus1=4067.3 Phases=1 kV=0.240 kW=0 kvar=0 
New Load.4068.2 Bus1=4068.2 Phases=1 kV=0.240 kW=0 kvar=0 
New Load.4069.1 Bus1=4069.1 Phases=1 kV=0.240 kW=0 kvar=0 
New Load.4070.2 Bus1=4070.2 Phases=1 kV=0.240 kW=0 kvar=0 
New Load.4071.3 Bus1=4071.3 Phases=1 kV=0.240 kW=0 kvar=0 
New Load.4072.3 Bus1=4072.3 Phases=1 kV=0.240 kW=0 kvar=0 
New Load.4073.3 Bus1=4073.3 Phases=1 kV=0.240 kW=0 kvar=0 
New Load.4074.3 Bus1=4074.3 Phases=1 kV=0.240 kW=0 kvar=0 
New Load.4075.1 Bus1=4075.1 Phases=1 kV=0.240 kW=0 kvar=0 
New Load.4076.1 Bus1=4076.1 Phases=1 kV=0.240 kW=0 kvar=0 
New Load.4077.1 Bus1=4077.1 Phases=1 kV=0.240 kW=0 kvar=0 
New Load.4078.2 Bus1=4078.2 Phases=1 kV=0.240 kW=0 kvar=0 
New Load.4079.3 Bus1=4079.3 Phases=1 kV=0.240 kW=0 kvar=0 
New Load.4080.1 Bus1=4080.1 Phases=1 kV=0.240 kW=0 kvar=0 
New Load.4081.2 Bus1=4081.2 Phases=1 kV=0.240 kW=0 kvar=0 
New Load.4082.3 Bus1=4082.3 Phases=1 kV=0.240 kW=0 kvar=0 
New Load.4083.3 Bus1=4083.3 Phases=1 kV=0.240 kW=0 kvar=0 
New Load.4084.1 Bus1=4084.1 Phases=1 kV=0.240 kW=0 kvar=0 
New Load.4085.1 Bus1=4085.1 Phases=1 kV=0.240 kW=0 kvar=0 
New Load.4086.1 Bus1=4086.1 Phases=1 kV=0.240 kW=0 kvar=0 
New Load.4087.3 Bus1=4087.3 Phases=1 kV=0.240 kW=0 kvar=0 
New Load.4088.3 Bus1=4088.3 Phases=1 kV=0.240 kW=0 kvar=0 
New Load.4089.1 Bus1=4089.1 Phases=1 kV=0.240 kW=0 kvar=0 
New Load.4090.2 Bus1=4090.2 Phases=1 kV=0.240 kW=0 kvar=0 
New Load.4091.2 Bus1=4091.2 Phases=1 kV=0.240 kW=0 kvar=0 
New Load.4092.2 Bus1=4092.2 Phases=1 kV=0.240 kW=0 kvar=0 
New Load.4093.2 Bus1=4093.2 Phases=1 kV=0.240 kW=0 kvar=0 
New Load.4094.3 Bus1=4094.3 Phases=1 kV=0.240 kW=0 kvar=0 
New Load.4095.2 Bus1=4095.2 Phases=1 kV=0.240 kW=0 kvar=0 
New Load.4096.2 Bus1=4096.2 Phases=1 kV=0.240 kW=0 kvar=0 
New Load.4097.3 Bus1=4097.3 Phases=1 kV=0.240 kW=0 kvar=0 
New Load.4098.3 Bus1=4098.3 Phases=1 kV=0.240 kW=0 kvar=0 
New Load.4099.2 Bus1=4099.2 Phases=1 kV=0.240 kW=0 kvar=0 
New Load.4100.2 Bus1=4100.2 Phases=1 kV=0.240 kW=0 kvar=0 
New Load.4101.1 Bus1=4101.1 Phases=1 kV=0.240 kW=0 kvar=0 
New Load.4102.3 Bus1=4102.3 Phases=1 kV=0.240 kW=0 kvar=0 
New Load.4103.1 Bus1=4103.1 Phases=1 kV=0.240 kW=0 kvar=0 
New Load.4104.1 Bus1=4104.1 Phases=1 kV=0.240 kW=0 kvar=0 
New Load.4105.2 Bus1=4105.2 Phases=1 kV=0.240 kW=0 kvar=0 
New Load.4106.1 Bus1=4106.1 Phases=1 kV=0.240 kW=0 kvar=0 
New Load.4107.1 Bus1=4107.1 Phases=1 kV=0.240 kW=0 kvar=0 
New Load.4108.2 Bus1=4108.2 Phases=1 kV=0.240 kW=0 kvar=0 
New Load.4109.1 Bus1=4109.1 Phases=1 kV=0.240 kW=0 kvar=0 
New Load.4110.1 Bus1=4110.1 Phases=1 kV=0.240 kW=0 kvar=0 
New Load.5056.1 Bus1=5056.1 Phases=1 kV=0.240 kW=0 kvar=0 
New Load.5057.2 Bus1=5057.2 Phases=1 kV=0.240 kW=0 kvar=0 
New Load.5058.1 Bus1=5058.1 Phases=1 kV=0.240 kW=0 kvar=0 
New Load.5059.1 Bus1=5059.1 Phases=1 kV=0.240 kW=0 kvar=0 
New Load.5060.1 Bus1=5060.1 Phases=1 kV=0.240 kW=0 kvar=0 
New Load.5061.2 Bus1=5061.2 Phases=1 kV=0.240 kW=0 kvar=0 
New Load.5062.2 Bus1=5062.2 Phases=1 kV=0.240 kW=0 kvar=0 
New Load.5063.3 Bus1=5063.3 Phases=1 kV=0.240 kW=0 kvar=0 
New Load.5064.1 Bus1=5064.1 Phases=1 kV=0.240 kW=0 kvar=0 
New Load.5065.2 Bus1=5065.2 Phases=1 kV=0.240 kW=0 kvar=0 
New Load.5066.2 Bus1=5066.2 Phases=1 kV=0.240 kW=0 kvar=0 
New Load.5067.3 Bus1=5067.3 Phases=1 kV=0.240 kW=0 kvar=0 
New Load.5068.2 Bus1=5068.2 Phases=1 kV=0.240 kW=0 kvar=0 
New Load.5069.1 Bus1=5069.1 Phases=1 kV=0.240 kW=0 kvar=0 
New Load.5070.2 Bus1=5070.2 Phases=1 kV=0.240 kW=0 kvar=0 
New Load.5071.3 Bus1=5071.3 Phases=1 kV=0.240 kW=0 kvar=0 
New Load.5072.3 Bus1=5072.3 Phases=1 kV=0.240 kW=0 kvar=0 
New Load.5073.3 Bus1=5073.3 Phases=1 kV=0.240 kW=0 kvar=0 
New Load.5074.3 Bus1=5074.3 Phases=1 kV=0.240 kW=0 kvar=0 
New Load.5075.1 Bus1=5075.1 Phases=1 kV=0.240 kW=0 kvar=0 
New Load.5076.1 Bus1=5076.1 Phases=1 kV=0.240 kW=0 kvar=0 
New Load.5077.1 Bus1=5077.1 Phases=1 kV=0.240 kW=0 kvar=0 
New Load.5078.2 Bus1=5078.2 Phases=1 kV=0.240 kW=0 kvar=0 
New Load.5079.3 Bus1=5079.3 Phases=1 kV=0.240 kW=0 kvar=0 
New Load.5080.1 Bus1=5080.1 Phases=1 kV=0.240 kW=0 kvar=0 
New Load.5081.2 Bus1=5081.2 Phases=1 kV=0.240 kW=0 kvar=0 
New Load.5082.3 Bus1=5082.3 Phases=1 kV=0.240 kW=0 kvar=0 
New Load.5083.3 Bus1=5083.3 Phases=1 kV=0.240 kW=0 kvar=0 
New Load.5084.1 Bus1=5084.1 Phases=1 kV=0.240 kW=0 kvar=0 
New Load.5085.1 Bus1=5085.1 Phases=1 kV=0.240 kW=0 kvar=0 
New Load.5086.1 Bus1=5086.1 Phases=1 kV=0.240 kW=0 kvar=0 
New Load.5087.3 Bus1=5087.3 Phases=1 kV=0.240 kW=0 kvar=0 
New Load.5088.3 Bus1=5088.3 Phases=1 kV=0.240 kW=0 kvar=0 
New Load.5089.1 Bus1=5089.1 Phases=1 kV=0.240 kW=0 kvar=0 
New Load.5090.2 Bus1=5090.2 Phases=1 kV=0.240 kW=0 kvar=0 
...
!---- Generated Capacitors

!---- Generated Lines
New Line.1-2 Bus1=1 Bus2=2 x1=0.0470 r1=0.0922 
New Line.2-3 Bus1=2 Bus2=3 x1=0.2511 r1=0.493 
New Line.3-4 Bus1=3 Bus2=4 x1=0.1864 r1=0.366 
New Line.4-5 Bus1=4 Bus2=5 x1=0.1941 r1=0.3811 
New Line.5-6 Bus1=5 Bus2=6 x1=0.707 r1=0.819 
New Line.6-7 Bus1=6 Bus2=7 x1=0.6188 r1=0.1872 
New Line.7-8 Bus1=7 Bus2=8 x1=0.2351 r1=0.7114 
New Line.8-9 Bus1=8 Bus2=9 x1=0.74 r1=1.03 
New Line.9-10 Bus1=9 Bus2=10 x1=0.74 r1=1.044 
New Line.10-11 Bus1=10 Bus2=11 x1=0.065 r1=0.1966 
New Line.11-12 Bus1=11 Bus2=12 x1=0.1238 r1=0.3744 
New Line.12-13 Bus1=12 Bus2=13 x1=1.155 r1=1.468 
New Line.13-14 Bus1=13 Bus2=14 x1=0.7129 r1=0.5416 
New Line.14-15 Bus1=14 Bus2=15 x1=0.526 r1=0.591 
New Line.15-16 Bus1=15 Bus2=16 x1=0.545 r1=0.7463 
New Line.16-17 Bus1=16 Bus2=17 x1=1.721 r1=1.289 
New Line.17-18 Bus1=17 Bus2=18 x1=0.574 r1=0.732 
New Line.2-19 Bus1=2 Bus2=19 x1=0.1565 r1=0.164 
New Line.19-20 Bus1=19 Bus2=20 x1=1.3554 r1=1.5042 
New Line.20-21 Bus1=20 Bus2=21 x1=0.4784 r1=0.4095 
New Line.21-22 Bus1=21 Bus2=22 x1=0.9373 r1=0.7089 
New Line.3-23 Bus1=3 Bus2=23 x1=0.3083 r1=0.4512 
New Line.23-24 Bus1=23 Bus2=24 x1=0.7091 r1=0.898 
New Line.24-25 Bus1=24 Bus2=25 x1=0.7011 r1=0.896 
New Line.6-26 Bus1=6 Bus2=26 x1=0.1034 r1=0.203 
New Line.26-27 Bus1=26 Bus2=27 x1=0.1447 r1=0.2842 
New Line.27-28 Bus1=27 Bus2=28 x1=0.9337 r1=1.059 
New Line.28-29 Bus1=28 Bus2=29 x1=0.7006 r1=0.8042 
New Line.29-30 Bus1=29 Bus2=30 x1=0.2585 r1=0.5075 
New Line.30-31 Bus1=30 Bus2=31 x1=0.963 r1=0.9744 
New Line.31-32 Bus1=31 Bus2=32 x1=0.3619 r1=0.3105 
New Line.32-33 Bus1=32 Bus2=33 x1=0.5302 r1=0.341 
New Line.2001-2002 Bus1=2001 Bus2=2002 x1=0.00155 r1=0.00975 
New Line.2002-2003 Bus1=2002 Bus2=2003 x1=0.00052 r1=0.00679 
New Line.2002-2004 Bus1=2002 Bus2=2004 x1=0.00090 r1=0.00563 
New Line.2003-2056 Bus1=2003 Bus2=2056 x1=0.00047 r1=0.00615 
New Line.2003-2058 Bus1=2003 Bus2=2058 x1=0.00059 r1=0.00776 
New Line.2004-2005 Bus1=2004 Bus2=2005 x1=0.00050 r1=0.00659 
New Line.2004-2006 Bus1=2004 Bus2=2006 x1=0.00150 r1=0.00944 
New Line.2005-2057 Bus1=2005 Bus2=2057 x1=0.00054 r1=0.00708 
New Line.2005-2061 Bus1=2005 Bus2=2061 x1=0.00057 r1=0.00741 
New Line.2006-2007 Bus1=2006 Bus2=2007 x1=0.00073 r1=0.00950 
New Line.2006-2008 Bus1=2006 Bus2=2008 x1=0.00095 r1=0.00597 
New Line.2007-2059 Bus1=2007 Bus2=2059 x1=0.00036 r1=0.00464 
New Line.2007-2060 Bus1=2007 Bus2=2060 x1=0.00036 r1=0.00464 
New Line.2008-2009 Bus1=2008 Bus2=2009 x1=0.00062 r1=0.00392 
New Line.2008-2012 Bus1=2008 Bus2=2012 x1=0.00099 r1=0.00131 
New Line.2009-2010 Bus1=2009 Bus2=2010 x1=0.00028 r1=0.00037 
New Line.2009-2017 Bus1=2009 Bus2=2017 x1=0.00206 r1=0.00772 
New Line.2010-2011 Bus1=2010 Bus2=2011 x1=0.00109 r1=0.00143 
New Line.2010-2069 Bus1=2010 Bus2=2069 x1=0.00126 r1=0.01650 
New Line.2011-2018 Bus1=2011 Bus2=2018 x1=0.00098 r1=0.01286 
New Line.2011-2021 Bus1=2011 Bus2=2021 x1=0.00202 r1=0.01342 
New Line.2012-2013 Bus1=2012 Bus2=2013 x1=0.00083 r1=0.00109 
New Line.2012-2062 Bus1=2012 Bus2=2062 x1=0.00163 r1=0.02132 
New Line.2013-2014 Bus1=2013 Bus2=2014 x1=0.00110 r1=0.01432 
New Line.2013-2015 Bus1=2013 Bus2=2015 x1=0.00095 r1=0.00126 
New Line.2014-2063 Bus1=2014 Bus2=2063 x1=0.00061 r1=0.00795 
New Line.2014-2067 Bus1=2014 Bus2=2067 x1=0.00072 r1=0.00947 
New Line.2015-2016 Bus1=2015 Bus2=2016 x1=0.00170 r1=0.01632 
New Line.2015-2064 Bus1=2015 Bus2=2064 x1=0.00162 r1=0.02123 
New Line.2016-2065 Bus1=2016 Bus2=2065 x1=0.00047 r1=0.00610 
New Line.2016-2066 Bus1=2016 Bus2=2066 x1=0.00047 r1=0.00610 
New Line.2017-2019 Bus1=2017 Bus2=2019 x1=0.00030 r1=0.00112 
New Line.2017-2076 Bus1=2017 Bus2=2076 x1=0.00128 r1=0.01670 
New Line.2018-2068 Bus1=2018 Bus2=2068 x1=0.00061 r1=0.00792 
New Line.2018-2070 Bus1=2018 Bus2=2070 x1=0.00042 r1=0.00552 
New Line.2019-2020 Bus1=2019 Bus2=2020 x1=0.00036 r1=0.00137 
New Line.2019-2074 Bus1=2019 Bus2=2074 x1=0.00132 r1=0.01721 
New Line.2020-2022 Bus1=2020 Bus2=2022 x1=0.00062 r1=0.00386 
New Line.2020-2026 Bus1=2020 Bus2=2026 x1=0.00053 r1=0.00200 
New Line.2021-2071 Bus1=2021 Bus2=2071 x1=0.00063 r1=0.00818 
New Line.2021-2072 Bus1=2021 Bus2=2072 x1=0.00029 r1=0.00382 
New Line.2022-2023 Bus1=2022 Bus2=2023 x1=0.00080 r1=0.00501 
New Line.2022-2025 Bus1=2022 Bus2=2025 x1=0.00068 r1=0.00885 
New Line.2023-2024 Bus1=2023 Bus2=2024 x1=0.00050 r1=0.00313 
New Line.2023-2073 Bus1=2023 Bus2=2073 x1=0.00112 r1=0.01466 
New Line.2024-2028 Bus1=2024 Bus2=2028 x1=0.00282 r1=0.01766 
New Line.2024-2078 Bus1=2024 Bus2=2078 x1=0.00139 r1=0.01815 
New Line.2025-2075 Bus1=2025 Bus2=2075 x1=0.00046 r1=0.00598 
New Line.2025-2077 Bus1=2025 Bus2=2077 x1=0.00075 r1=0.00980 
New Line.2026-2027 Bus1=2026 Bus2=2027 x1=0.00054 r1=0.00202 
New Line.2026-2079 Bus1=2026 Bus2=2079 x1=0.00187 r1=0.02442 
New Line.2027-2031 Bus1=2027 Bus2=2031 x1=0.00192 r1=0.00721 
New Line.2027-2033 Bus1=2027 Bus2=2033 x1=0.00094 r1=0.01228 
New Line.2028-2029 Bus1=2028 Bus2=2029 x1=0.00102 r1=0.00637 
New Line.2028-2089 Bus1=2028 Bus2=2089 x1=0.00145 r1=0.01901 
New Line.2029-2030 Bus1=2029 Bus2=2030 x1=0.00090 r1=0.01182 
New Line.2029-2032 Bus1=2029 Bus2=2032 x1=0.00120 r1=0.00753 
New Line.2030-2080 Bus1=2030 Bus2=2080 x1=0.00059 r1=0.00768 
New Line.2030-2085 Bus1=2030 Bus2=2085 x1=0.00049 r1=0.00638 
New Line.2031-2036 Bus1=2031 Bus2=2036 x1=0.00021 r1=0.00080 
New Line.2031-2081 Bus1=2031 Bus2=2081 x1=0.00092 r1=0.01204 
New Line.2032-2034 Bus1=2032 Bus2=2034 x1=0.00094 r1=0.01226 
New Line.2032-2035 Bus1=2032 Bus2=2035 x1=0.00097 r1=0.00607 
New Line.2033-2082 Bus1=2033 Bus2=2082 x1=0.00049 r1=0.00642 
New Line.2033-2083 Bus1=2033 Bus2=2083 x1=0.00086 r1=0.01127 
New Line.2034-2084 Bus1=2034 Bus2=2084 x1=0.00059 r1=0.00765 
New Line.2034-2086 Bus1=2034 Bus2=2086 x1=0.00056 r1=0.00733 
New Line.2035-2037 Bus1=2035 Bus2=2037 x1=0.00055 r1=0.00342 
New Line.2035-2040 Bus1=2035 Bus2=2040 x1=0.00121 r1=0.01577 
New Line.2036-2038 Bus1=2036 Bus2=2038 x1=0.00035 r1=0.00131 
New Line.2036-2099 Bus1=2036 Bus2=2099 x1=0.00138 r1=0.01807 
New Line.2037-2088 Bus1=2037 Bus2=2088 x1=0.00132 r1=0.01687 
New Line.2037-2090 Bus1=2037 Bus2=2090 x1=0.00213 r1=0.02498 
New Line.2038-2039 Bus1=2038 Bus2=2039 x1=0.00066 r1=0.00249 
New Line.2038-2087 Bus1=2038 Bus2=2087 x1=0.00123 r1=0.01610 
New Line.2039-2041 Bus1=2039 Bus2=2041 x1=0.00020 r1=0.00074 
New Line.2039-2093 Bus1=2039 Bus2=2093 x1=0.00121 r1=0.01583 
New Line.2040-2091 Bus1=2040 Bus2=2091 x1=0.00047 r1=0.00615 
New Line.2040-2092 Bus1=2040 Bus2=2092 x1=0.00053 r1=0.00693 
New Line.2041-2042 Bus1=2041 Bus2=2042 x1=0.00070 r1=0.00264 
New Line.2041-2050 Bus1=2041 Bus2=2050 x1=0.00134 r1=0.01747 
New Line.2042-2043 Bus1=2042 Bus2=2043 x1=0.00072 r1=0.00937 
New Line.2042-2044 Bus1=2042 Bus2=2044 x1=0.00077 r1=0.00288 
New Line.2043-2094 Bus1=2043 Bus2=2094 x1=0.00057 r1=0.00743 
New Line.2043-2097 Bus1=2043 Bus2=2097 x1=0.00065 r1=0.00846 
New Line.2044-2045 Bus1=2044 Bus2=2045 x1=0.00081 r1=0.00469 
New Line.2044-2095 Bus1=2044 Bus2=2095 x1=0.00132 r1=0.01722 
New Line.2045-2046 Bus1=2045 Bus2=2046 x1=0.00114 r1=0.00715 
New Line.2045-2055 Bus1=2045 Bus2=2055 x1=0.00112 r1=0.01466 
New Line.2046-2047 Bus1=2046 Bus2=2047 x1=0.00099 r1=0.01295 
New Line.2046-2048 Bus1=2046 Bus2=2048 x1=0.00128 r1=0.00798 
New Line.2047-2096 Bus1=2047 Bus2=2096 x1=0.00060 r1=0.00779 
New Line.2047-2100 Bus1=2047 Bus2=2100 x1=0.00051 r1=0.00662 
New Line.2048-2049 Bus1=2048 Bus2=2049 x1=0.00096 r1=0.01250 
New Line.2048-2051 Bus1=2048 Bus2=2051 x1=0.00146 r1=0.00913 
New Line.2049-2098 Bus1=2049 Bus2=2098 x1=0.00063 r1=0.00820 
New Line.2049-2102 Bus1=2049 Bus2=2102 x1=0.00050 r1=0.00651 
New Line.2050-2052 Bus1=2050 Bus2=2052 x1=0.00020 r1=0.00264 
New Line.2050-2101 Bus1=2050 Bus2=2101 x1=0.00086 r1=0.01124 
New Line.2051-2053 Bus1=2051 Bus2=2053 x1=0.00205 r1=0.01979 
New Line.2051-2054 Bus1=2051 Bus2=2054 x1=0.00095 r1=0.01239 
New Line.2052-2103 Bus1=2052 Bus2=2103 x1=0.00025 r1=0.00324 
New Line.2052-2104 Bus1=2052 Bus2=2104 x1=0.00066 r1=0.00864 
New Line.2053-2105 Bus1=2053 Bus2=2105 x1=0.00064 r1=0.00944 
New Line.2053-2108 Bus1=2053 Bus2=2108 x1=0.00079 r1=0.01174 
New Line.2054-2107 Bus1=2054 Bus2=2107 x1=0.00095 r1=0.00897 
New Line.2054-2110 Bus1=2054 Bus2=2110 x1=0.00071 r1=0.00931 
New Line.2055-2106 Bus1=2055 Bus2=2106 x1=0.00029 r1=0.00375 
New Line.2055-2109 Bus1=2055 Bus2=2109 x1=0.00085 r1=0.01115 
New Line.3001-3002 Bus1=3001 Bus2=3002 x1=0.00155 r1=0.00975 
New Line.3002-3003 Bus1=3002 Bus2=3003 x1=0.00052 r1=0.00679 
New Line.3002-3004 Bus1=3002 Bus2=3004 x1=0.00090 r1=0.00563 
New Line.3003-3056 Bus1=3003 Bus2=3056 x1=0.00047 r1=0.00615 
New Line.3003-3058 Bus1=3003 Bus2=3058 x1=0.00059 r1=0.00776 
New Line.3004-3005 Bus1=3004 Bus2=3005 x1=0.00050 r1=0.00659 
New Line.3004-3006 Bus1=3004 Bus2=3006 x1=0.00150 r1=0.00944 
New Line.3005-3057 Bus1=3005 Bus2=3057 x1=0.00054 r1=0.00708 
New Line.3005-3061 Bus1=3005 Bus2=3061 x1=0.00057 r1=0.00741 
New Line.3006-3007 Bus1=3006 Bus2=3007 x1=0.00073 r1=0.00950 
New Line.3006-3008 Bus1=3006 Bus2=3008 x1=0.00095 r1=0.00597 
New Line.3007-3059 Bus1=3007 Bus2=3059 x1=0.00036 r1=0.00464 
New Line.3007-3060 Bus1=3007 Bus2=3060 x1=0.00036 r1=0.00464 
New Line.3008-3009 Bus1=3008 Bus2=3009 x1=0.00062 r1=0.00392 
New Line.3008-3012 Bus1=3008 Bus2=3012 x1=0.00099 r1=0.00131 
New Line.3009-3010 Bus1=3009 Bus2=3010 x1=0.00028 r1=0.00037 
New Line.3009-3017 Bus1=3009 Bus2=3017 x1=0.00206 r1=0.00772 
New Line.3010-3011 Bus1=3010 Bus2=3011 x1=0.00109 r1=0.00143 
New Line.3010-3069 Bus1=3010 Bus2=3069 x1=0.00126 r1=0.01650 
New Line.3011-3018 Bus1=3011 Bus2=3018 x1=0.00098 r1=0.01286 
New Line.3011-3021 Bus1=3011 Bus2=3021 x1=0.00202 r1=0.01342 
New Line.3012-3013 Bus1=3012 Bus2=3013 x1=0.00083 r1=0.00109 
New Line.3012-3062 Bus1=3012 Bus2=3062 x1=0.00163 r1=0.02132 
New Line.3013-3014 Bus1=3013 Bus2=3014 x1=0.00110 r1=0.01432 
New Line.3013-3015 Bus1=3013 Bus2=3015 x1=0.00095 r1=0.00126 
New Line.3014-3063 Bus1=3014 Bus2=3063 x1=0.00061 r1=0.00795 
New Line.3014-3067 Bus1=3014 Bus2=3067 x1=0.00072 r1=0.00947 
New Line.3015-3016 Bus1=3015 Bus2=3016 x1=0.00170 r1=0.01632 
New Line.3015-3064 Bus1=3015 Bus2=3064 x1=0.00162 r1=0.02123 
New Line.3016-3065 Bus1=3016 Bus2=3065 x1=0.00047 r1=0.00610 
New Line.3016-3066 Bus1=3016 Bus2=3066 x1=0.00047 r1=0.00610 
New Line.3017-3019 Bus1=3017 Bus2=3019 x1=0.00030 r1=0.00112 
New Line.3017-3076 Bus1=3017 Bus2=3076 x1=0.00128 r1=0.01670 
New Line.3018-3068 Bus1=3018 Bus2=3068 x1=0.00061 r1=0.00792 
New Line.3018-3070 Bus1=3018 Bus2=3070 x1=0.00042 r1=0.00552 
New Line.3019-3020 Bus1=3019 Bus2=3020 x1=0.00036 r1=0.00137 
New Line.3019-3074 Bus1=3019 Bus2=3074 x1=0.00132 r1=0.01721 
New Line.3020-3022 Bus1=3020 Bus2=3022 x1=0.00062 r1=0.00386 
New Line.3020-3026 Bus1=3020 Bus2=3026 x1=0.00053 r1=0.00200 
New Line.3021-3071 Bus1=3021 Bus2=3071 x1=0.00063 r1=0.00818 
New Line.3021-3072 Bus1=3021 Bus2=3072 x1=0.00029 r1=0.00382 
New Line.3022-3023 Bus1=3022 Bus2=3023 x1=0.00080 r1=0.00501 
New Line.3022-3025 Bus1=3022 Bus2=3025 x1=0.00068 r1=0.00885 
New Line.3023-3024 Bus1=3023 Bus2=3024 x1=0.00050 r1=0.00313 
New Line.3023-3073 Bus1=3023 Bus2=3073 x1=0.00112 r1=0.01466 
New Line.3024-3028 Bus1=3024 Bus2=3028 x1=0.00282 r1=0.01766 
New Line.3024-3078 Bus1=3024 Bus2=3078 x1=0.00139 r1=0.01815 
New Line.3025-3075 Bus1=3025 Bus2=3075 x1=0.00046 r1=0.00598 
New Line.3025-3077 Bus1=3025 Bus2=3077 x1=0.00075 r1=0.00980 
New Line.3026-3027 Bus1=3026 Bus2=3027 x1=0.00054 r1=0.00202 
New Line.3026-3079 Bus1=3026 Bus2=3079 x1=0.00187 r1=0.02442 
New Line.3027-3031 Bus1=3027 Bus2=3031 x1=0.00192 r1=0.00721 
New Line.3027-3033 Bus1=3027 Bus2=3033 x1=0.00094 r1=0.01228 
New Line.3028-3029 Bus1=3028 Bus2=3029 x1=0.00102 r1=0.00637 
New Line.3028-3089 Bus1=3028 Bus2=3089 x1=0.00145 r1=0.01901 
New Line.3029-3030 Bus1=3029 Bus2=3030 x1=0.00090 r1=0.01182 
New Line.3029-3032 Bus1=3029 Bus2=3032 x1=0.00120 r1=0.00753 
New Line.3030-3080 Bus1=3030 Bus2=3080 x1=0.00059 r1=0.00768 
New Line.3030-3085 Bus1=3030 Bus2=3085 x1=0.00049 r1=0.00638 
...
!---- Generated Switches
Set ControlMode=OFF
!---- Generated Transformer Voltages
Set VoltageBases=[12.66, 0.416] 
calcv 
Solve 
